Version 4
SHEET 1 880 680
WIRE 208 -16 48 -16
WIRE 608 -16 208 -16
WIRE 48 16 48 -16
WIRE 208 80 208 64
WIRE 336 80 208 80
WIRE 464 80 400 80
WIRE 608 112 608 -16
WIRE 608 128 608 112
WIRE -48 160 -112 160
WIRE 48 160 48 96
WIRE 48 160 16 160
WIRE 160 160 48 160
WIRE 464 160 464 80
WIRE -112 192 -112 160
WIRE 48 192 48 160
WIRE 208 192 208 176
WIRE 336 192 208 192
WIRE 336 272 336 256
WIRE 208 352 208 272
WIRE 336 352 208 352
WIRE -112 368 -112 272
WIRE 48 368 48 272
WIRE 48 368 -112 368
WIRE 128 368 48 368
WIRE 208 368 208 352
WIRE 208 368 128 368
WIRE 464 368 464 240
WIRE 464 368 208 368
WIRE 608 368 608 192
WIRE 608 368 464 368
WIRE 128 384 128 368
FLAG 128 384 0
DATAFLAG 336 -16 ""
SYMBOL nmos 160 80 R0
SYMATTR InstName M1
SYMATTR Value BS170
SYMBOL res 32 176 R0
SYMATTR InstName RG2
SYMATTR Value 150000
SYMBOL res 32 0 R0
SYMATTR InstName RG1
SYMATTR Value 100000
SYMBOL res 192 -32 R0
SYMATTR InstName RD
SYMATTR Value 5000
SYMBOL res 192 176 R0
SYMATTR InstName RS
SYMATTR Value 10000
SYMBOL voltage 608 96 R0
WINDOW 123 0 0 Left 0
WINDOW 39 0 0 Left 0
WINDOW 0 26 23 Left 2
SYMATTR InstName VDD
SYMATTR Value 20
SYMBOL res 448 144 R0
SYMATTR InstName RL
SYMATTR Value 200000
SYMBOL cap 16 144 R90
WINDOW 0 0 32 VBottom 2
WINDOW 3 31 43 VTop 2
SYMATTR InstName C1
SYMATTR Value 0.000025
SYMBOL cap 400 64 R90
WINDOW 0 0 32 VBottom 2
WINDOW 3 32 32 VTop 2
SYMATTR InstName C2
SYMATTR Value 0.000025
SYMBOL voltage -112 176 R0
WINDOW 0 -63 26 Left 2
WINDOW 3 -60 78 Left 2
WINDOW 123 -80 106 Left 2
WINDOW 39 0 0 Left 0
SYMATTR InstName V1
SYMATTR Value ""
SYMATTR Value2 AC 1.0
SYMBOL cap 320 192 R0
SYMATTR InstName C3
SYMATTR Value 0.0025
SYMBOL res 320 256 R0
SYMATTR InstName RS2
SYMATTR Value 400
TEXT 472 384 Left 2 !.include bs170model.lib
TEXT 32 400 Left 2 !;op
TEXT 472 408 Left 2 !.ac dec 101 0.1 1meg
